   60
jmolscript: load "" {1 1 1} spacegroup "x,y,z" unitcell [{      7.677706     0.046376     2.179336 }, {      0.464544     8.521954     2.251697 }, {      0.047623    -0.099363    10.106927 }]
Cd      2.017930     7.410601     7.055340   235.150647
Cd      6.171918     1.058332     7.482584   235.145616
H       5.901038     8.131117    12.492679    14.654282
H       2.288802     0.337798     2.045309    14.653837
H       6.711689     1.921968     3.592188    13.531327
H       1.478228     6.546956    10.945784    13.531114
H       7.784682     3.472251    12.152061    14.505971
H       0.405197     4.996682     2.385902    14.510450
H       4.212397     6.603211     9.431115    14.423344
H       3.977470     1.865782     5.106778    14.426078
H       2.083746     2.221012     8.894270    14.588166
H       6.106151     6.247980     5.643754    14.593050
H       5.004448     4.730017    10.855524    13.319774
H       3.185436     3.739018     3.682426    13.317083
H       5.920358     8.479118     4.864952    13.837299
H       2.269498    -0.010177     9.673027    13.838531
H       3.911138     2.460181    10.572974    12.364672
H       4.278761     6.008838     3.965016    12.365685
C       5.972512     0.435879    10.705272    79.064960
C       2.217330     8.033087     3.832689    79.066757
C       7.687167     3.351190     9.363015    80.619647
C       0.502698     5.117760     5.174939    80.623075
C       6.648261     1.770706     2.516422    84.836049
C       1.541611     6.698227    12.021539    84.832842
C       7.295061     2.585871    11.759028    93.199943
C       0.894832     5.883053     2.778927    93.192098
C       2.145398     4.295407     8.320426    77.933460
C       6.044467     4.173568     6.217545    77.933110
C       1.098894     4.210693     7.265085    79.610578
C       7.091001     4.258248     7.272915    79.604484
C       3.745446     5.622017     9.351907    76.686173
C       4.444428     2.846976     5.186040    76.684834
C       2.558477     3.183433     9.060267    90.996009
C       5.631376     5.285576     5.477728    90.997178
C       7.208563     2.371880    10.378224    80.814006
C       0.981323     6.097053     4.159732    80.815499
C       4.192312     4.564474    10.146482    84.923642
C       3.997572     3.904561     4.391488    84.939446
C       5.972050     0.676288     1.983332    87.676502
C       2.217798     7.792637    12.554620    87.671960
C       3.585809     3.321031     9.990774    83.355912
C       4.604067     5.147996     4.547202    83.334627
N       2.746297     5.501452     8.464345    84.069573
N       5.443569     2.967532     6.073618    84.076224
N       1.277089     5.080871     6.265168    85.910550
N       6.912790     3.388070     8.272798    85.913702
N       6.549537     1.308361     9.871648    85.660579
N       1.640328     7.160606     4.666320    85.664400
N       4.093706     8.036519     6.355945    90.519698
N       4.096153     0.432473     8.182007    90.537863
N       5.070746     8.074034     7.042688    54.960033
N       3.119020     0.394950     7.495186    54.953020
N       6.940949     5.751998    11.827238    78.600627
N       1.248930     2.716926     2.710753    78.585466
N       7.587661     7.348072    10.195253    92.006055
N       0.602187     1.120860     4.342722    92.027670
N       7.266873     6.541159    11.021631    54.008297
N       0.923026     1.927869     3.516230    54.012754
N       6.084171     8.116606     7.642401    85.853793
N       2.105709     0.352361     6.895531    85.848702
  
Same information as above printed with atom number.
   1 Cd     2.017930     7.410601     7.055340   235.150647
   2 Cd     6.171918     1.058332     7.482584   235.145616
   3 H      5.901038     8.131117    12.492679    14.654282
   4 H      2.288802     0.337798     2.045309    14.653837
   5 H      6.711689     1.921968     3.592188    13.531327
   6 H      1.478228     6.546956    10.945784    13.531114
   7 H      7.784682     3.472251    12.152061    14.505971
   8 H      0.405197     4.996682     2.385902    14.510450
   9 H      4.212397     6.603211     9.431115    14.423344
  10 H      3.977470     1.865782     5.106778    14.426078
  11 H      2.083746     2.221012     8.894270    14.588166
  12 H      6.106151     6.247980     5.643754    14.593050
  13 H      5.004448     4.730017    10.855524    13.319774
  14 H      3.185436     3.739018     3.682426    13.317083
  15 H      5.920358     8.479118     4.864952    13.837299
  16 H      2.269498    -0.010177     9.673027    13.838531
  17 H      3.911138     2.460181    10.572974    12.364672
  18 H      4.278761     6.008838     3.965016    12.365685
  19 C      5.972512     0.435879    10.705272    79.064960
  20 C      2.217330     8.033087     3.832689    79.066757
  21 C      7.687167     3.351190     9.363015    80.619647
  22 C      0.502698     5.117760     5.174939    80.623075
  23 C      6.648261     1.770706     2.516422    84.836049
  24 C      1.541611     6.698227    12.021539    84.832842
  25 C      7.295061     2.585871    11.759028    93.199943
  26 C      0.894832     5.883053     2.778927    93.192098
  27 C      2.145398     4.295407     8.320426    77.933460
  28 C      6.044467     4.173568     6.217545    77.933110
  29 C      1.098894     4.210693     7.265085    79.610578
  30 C      7.091001     4.258248     7.272915    79.604484
  31 C      3.745446     5.622017     9.351907    76.686173
  32 C      4.444428     2.846976     5.186040    76.684834
  33 C      2.558477     3.183433     9.060267    90.996009
  34 C      5.631376     5.285576     5.477728    90.997178
  35 C      7.208563     2.371880    10.378224    80.814006
  36 C      0.981323     6.097053     4.159732    80.815499
  37 C      4.192312     4.564474    10.146482    84.923642
  38 C      3.997572     3.904561     4.391488    84.939446
  39 C      5.972050     0.676288     1.983332    87.676502
  40 C      2.217798     7.792637    12.554620    87.671960
  41 C      3.585809     3.321031     9.990774    83.355912
  42 C      4.604067     5.147996     4.547202    83.334627
  43 N      2.746297     5.501452     8.464345    84.069573
  44 N      5.443569     2.967532     6.073618    84.076224
  45 N      1.277089     5.080871     6.265168    85.910550
  46 N      6.912790     3.388070     8.272798    85.913702
  47 N      6.549537     1.308361     9.871648    85.660579
  48 N      1.640328     7.160606     4.666320    85.664400
  49 N      4.093706     8.036519     6.355945    90.519698
  50 N      4.096153     0.432473     8.182007    90.537863
  51 N      5.070746     8.074034     7.042688    54.960033
  52 N      3.119020     0.394950     7.495186    54.953020
  53 N      6.940949     5.751998    11.827238    78.600627
  54 N      1.248930     2.716926     2.710753    78.585466
  55 N      7.587661     7.348072    10.195253    92.006055
  56 N      0.602187     1.120860     4.342722    92.027670
  57 N      7.266873     6.541159    11.021631    54.008297
  58 N      0.923026     1.927869     3.516230    54.012754
  59 N      6.084171     8.116606     7.642401    85.853793
  60 N      2.105709     0.352361     6.895531    85.848702
