   60
jmolscript: load "" {1 1 1} spacegroup "x,y,z" unitcell [{      7.677706     0.046376     2.179336 }, {      0.464544     8.521954     2.251697 }, {      0.047623    -0.099363    10.106927 }]
Cd      2.017930     7.410601     7.055340    84.361141
Cd      6.171918     1.058332     7.482584    84.359780
H       5.901038     8.131117    12.492679     4.742454
H       2.288802     0.337798     2.045309     4.742343
H       6.711689     1.921968     3.592188     4.437359
H       1.478228     6.546956    10.945784     4.437310
H       7.784682     3.472251    12.152061     4.655696
H       0.405197     4.996682     2.385902     4.656702
H       4.212397     6.603211     9.431115     4.683967
H       3.977470     1.865782     5.106778     4.684540
H       2.083746     2.221012     8.894270     4.685253
H       6.106151     6.247980     5.643754     4.686326
H       5.004448     4.730017    10.855524     4.422083
H       3.185436     3.739018     3.682426     4.421467
H       5.920358     8.479118     4.864952     4.508767
H       2.269498    -0.010177     9.673027     4.509092
H       3.911138     2.460181    10.572974     4.153821
H       4.278761     6.008838     3.965016     4.154149
C       5.972512     0.435879    10.705272    27.300605
C       2.217330     8.033087     3.832689    27.301061
C       7.687167     3.351190     9.363015    27.337460
C       0.502698     5.117760     5.174939    27.338411
C       6.648261     1.770706     2.516422    28.988666
C       1.541611     6.698227    12.021539    28.988023
C       7.295061     2.585871    11.759028    31.186207
C       0.894832     5.883053     2.778927    31.184072
C       2.145398     4.295407     8.320426    26.664329
C       6.044467     4.173568     6.217545    26.664994
C       1.098894     4.210693     7.265085    27.164735
C       7.091001     4.258248     7.272915    27.163014
C       3.745446     5.622017     9.351907    26.825037
C       4.444428     2.846976     5.186040    26.824398
C       2.558477     3.183433     9.060267    30.667809
C       5.631376     5.285576     5.477728    30.668252
C       7.208563     2.371880    10.378224    27.259306
C       0.981323     6.097053     4.159732    27.260221
C       4.192312     4.564474    10.146482    29.337492
C       3.997572     3.904561     4.391488    29.341649
C       5.972050     0.676288     1.983332    29.954404
C       2.217798     7.792637    12.554620    29.953085
C       3.585809     3.321031     9.990774    28.608027
C       4.604067     5.147996     4.547202    28.602670
N       2.746297     5.501452     8.464345    29.581045
N       5.443569     2.967532     6.073618    29.582521
N       1.277089     5.080871     6.265168    29.917958
N       6.912790     3.388070     8.272798    29.918625
N       6.549537     1.308361     9.871648    29.713403
N       1.640328     7.160606     4.666320    29.714084
N       4.093706     8.036519     6.355945    32.306192
N       4.096153     0.432473     8.182007    32.311121
N       5.070746     8.074034     7.042688    21.321127
N       3.119020     0.394950     7.495186    21.318936
N       6.940949     5.751998    11.827238    29.608278
N       1.248930     2.716926     2.710753    29.603568
N       7.587661     7.348072    10.195253    32.380673
N       0.602187     1.120860     4.342722    32.386349
N       7.266873     6.541159    11.021631    21.032587
N       0.923026     1.927869     3.516230    21.033929
N       6.084171     8.116606     7.642401    31.042195
N       2.105709     0.352361     6.895531    31.040525
  
Same information as above printed with atom number.
   1 Cd     2.017930     7.410601     7.055340    84.361141
   2 Cd     6.171918     1.058332     7.482584    84.359780
   3 H      5.901038     8.131117    12.492679     4.742454
   4 H      2.288802     0.337798     2.045309     4.742343
   5 H      6.711689     1.921968     3.592188     4.437359
   6 H      1.478228     6.546956    10.945784     4.437310
   7 H      7.784682     3.472251    12.152061     4.655696
   8 H      0.405197     4.996682     2.385902     4.656702
   9 H      4.212397     6.603211     9.431115     4.683967
  10 H      3.977470     1.865782     5.106778     4.684540
  11 H      2.083746     2.221012     8.894270     4.685253
  12 H      6.106151     6.247980     5.643754     4.686326
  13 H      5.004448     4.730017    10.855524     4.422083
  14 H      3.185436     3.739018     3.682426     4.421467
  15 H      5.920358     8.479118     4.864952     4.508767
  16 H      2.269498    -0.010177     9.673027     4.509092
  17 H      3.911138     2.460181    10.572974     4.153821
  18 H      4.278761     6.008838     3.965016     4.154149
  19 C      5.972512     0.435879    10.705272    27.300605
  20 C      2.217330     8.033087     3.832689    27.301061
  21 C      7.687167     3.351190     9.363015    27.337460
  22 C      0.502698     5.117760     5.174939    27.338411
  23 C      6.648261     1.770706     2.516422    28.988666
  24 C      1.541611     6.698227    12.021539    28.988023
  25 C      7.295061     2.585871    11.759028    31.186207
  26 C      0.894832     5.883053     2.778927    31.184072
  27 C      2.145398     4.295407     8.320426    26.664329
  28 C      6.044467     4.173568     6.217545    26.664994
  29 C      1.098894     4.210693     7.265085    27.164735
  30 C      7.091001     4.258248     7.272915    27.163014
  31 C      3.745446     5.622017     9.351907    26.825037
  32 C      4.444428     2.846976     5.186040    26.824398
  33 C      2.558477     3.183433     9.060267    30.667809
  34 C      5.631376     5.285576     5.477728    30.668252
  35 C      7.208563     2.371880    10.378224    27.259306
  36 C      0.981323     6.097053     4.159732    27.260221
  37 C      4.192312     4.564474    10.146482    29.337492
  38 C      3.997572     3.904561     4.391488    29.341649
  39 C      5.972050     0.676288     1.983332    29.954404
  40 C      2.217798     7.792637    12.554620    29.953085
  41 C      3.585809     3.321031     9.990774    28.608027
  42 C      4.604067     5.147996     4.547202    28.602670
  43 N      2.746297     5.501452     8.464345    29.581045
  44 N      5.443569     2.967532     6.073618    29.582521
  45 N      1.277089     5.080871     6.265168    29.917958
  46 N      6.912790     3.388070     8.272798    29.918625
  47 N      6.549537     1.308361     9.871648    29.713403
  48 N      1.640328     7.160606     4.666320    29.714084
  49 N      4.093706     8.036519     6.355945    32.306192
  50 N      4.096153     0.432473     8.182007    32.311121
  51 N      5.070746     8.074034     7.042688    21.321127
  52 N      3.119020     0.394950     7.495186    21.318936
  53 N      6.940949     5.751998    11.827238    29.608278
  54 N      1.248930     2.716926     2.710753    29.603568
  55 N      7.587661     7.348072    10.195253    32.380673
  56 N      0.602187     1.120860     4.342722    32.386349
  57 N      7.266873     6.541159    11.021631    21.032587
  58 N      0.923026     1.927869     3.516230    21.033929
  59 N      6.084171     8.116606     7.642401    31.042195
  60 N      2.105709     0.352361     6.895531    31.040525
