   32
jmolscript: load "" {1 1 1} spacegroup "x,y,z" unitcell [{      5.005236     0.000158     0.000004 }, {      0.000182     6.527885    -0.678076 }, {     -0.000020     0.010513     8.859978 }]
Li      4.197319     0.852413     2.238701    12.972395
Li      1.695052     5.681202     1.513196    12.972183
Li      0.807608     5.686398     5.943108    12.966336
Li      3.310902     0.857589     6.668650    12.975859
H       3.293190     2.004099     0.182409    11.260106
H       0.789568     4.529347     3.569249    11.257457
H       1.713249     4.534789     7.999294    11.266124
H       4.215049     2.009418     4.612511    11.261614
H       0.928872     2.962842     0.849073    13.664858
H       3.431842     3.570477     2.903389    13.670575
H       4.076271     3.575617     7.333499    13.662694
H       1.573641     2.967969     5.279211    13.663228
C       0.846291     1.602991     8.045607    65.011983
C       3.349640     4.940547     4.565941    65.024632
C       4.158781     4.935401     0.135882    65.033135
C       1.656158     1.597702     3.615722    64.989361
C       0.192970     2.648160     0.093494    80.418405
C       2.695308     3.885170     3.658101    80.415668
C       4.812689     3.890598     8.088117    80.428322
C       2.309699     2.653640     4.523707    80.432634
O       4.070431     2.155648     0.803684    78.417244
O       1.567279     4.377352     2.948373    78.424452
O       0.935438     4.382758     7.378379    78.417154
O       3.437609     2.161008     5.233713    78.416975
O       0.096272     0.842917     7.357488    82.619862
O       2.598729     5.700012     5.253665    82.600869
O       4.909351     5.694888     0.824062    82.623547
O       2.406379     0.837923     2.927782    82.625562
O       2.114937     1.556452     8.004173    77.760525
O       4.618659     4.987951     4.608270    77.743548
O       2.889690     4.982528     0.178061    77.728672
O       0.387430     1.551017     3.574019    77.772327
  
Same information as above printed with atom number.
   1 Li     4.197319     0.852413     2.238701    12.972395
   2 Li     1.695052     5.681202     1.513196    12.972183
   3 Li     0.807608     5.686398     5.943108    12.966336
   4 Li     3.310902     0.857589     6.668650    12.975859
   5 H      3.293190     2.004099     0.182409    11.260106
   6 H      0.789568     4.529347     3.569249    11.257457
   7 H      1.713249     4.534789     7.999294    11.266124
   8 H      4.215049     2.009418     4.612511    11.261614
   9 H      0.928872     2.962842     0.849073    13.664858
  10 H      3.431842     3.570477     2.903389    13.670575
  11 H      4.076271     3.575617     7.333499    13.662694
  12 H      1.573641     2.967969     5.279211    13.663228
  13 C      0.846291     1.602991     8.045607    65.011983
  14 C      3.349640     4.940547     4.565941    65.024632
  15 C      4.158781     4.935401     0.135882    65.033135
  16 C      1.656158     1.597702     3.615722    64.989361
  17 C      0.192970     2.648160     0.093494    80.418405
  18 C      2.695308     3.885170     3.658101    80.415668
  19 C      4.812689     3.890598     8.088117    80.428322
  20 C      2.309699     2.653640     4.523707    80.432634
  21 O      4.070431     2.155648     0.803684    78.417244
  22 O      1.567279     4.377352     2.948373    78.424452
  23 O      0.935438     4.382758     7.378379    78.417154
  24 O      3.437609     2.161008     5.233713    78.416975
  25 O      0.096272     0.842917     7.357488    82.619862
  26 O      2.598729     5.700012     5.253665    82.600869
  27 O      4.909351     5.694888     0.824062    82.623547
  28 O      2.406379     0.837923     2.927782    82.625562
  29 O      2.114937     1.556452     8.004173    77.760525
  30 O      4.618659     4.987951     4.608270    77.743548
  31 O      2.889690     4.982528     0.178061    77.728672
  32 O      0.387430     1.551017     3.574019    77.772327
