   32
jmolscript: load "" {1 1 1} spacegroup "x,y,z" unitcell [{      5.005236     0.000158     0.000004 }, {      0.000182     6.527885    -0.678076 }, {     -0.000020     0.010513     8.859978 }]
Li      4.197319     0.852413     2.238701     4.382901
Li      1.695052     5.681202     1.513196     4.382871
Li      0.807608     5.686398     5.943108     4.381169
Li      3.310902     0.857589     6.668650     4.384092
H       3.293190     2.004099     0.182409     3.580526
H       0.789568     4.529347     3.569249     3.579991
H       1.713249     4.534789     7.999294     3.582040
H       4.215049     2.009418     4.612511     3.580898
H       0.928872     2.962842     0.849073     4.490001
H       3.431842     3.570477     2.903389     4.491744
H       4.076271     3.575617     7.333499     4.489860
H       1.573641     2.967969     5.279211     4.489714
C       0.846291     1.602991     8.045607    22.540303
C       3.349640     4.940547     4.565941    22.542803
C       4.158781     4.935401     0.135882    22.545838
C       1.656158     1.597702     3.615722    22.534620
C       0.192970     2.648160     0.093494    27.642456
C       2.695308     3.885170     3.658101    27.640433
C       4.812689     3.890598     8.088117    27.644780
C       2.309699     2.653640     4.523707    27.646830
O       4.070431     2.155648     0.803684    28.588615
O       1.567279     4.377352     2.948373    28.589045
O       0.935438     4.382758     7.378379    28.587164
O       3.437609     2.161008     5.233713    28.588502
O       0.096272     0.842917     7.357488    30.222486
O       2.598729     5.700012     5.253665    30.218036
O       4.909351     5.694888     0.824062    30.222380
O       2.406379     0.837923     2.927782    30.223548
O       2.114937     1.556452     8.004173    28.886946
O       4.618659     4.987951     4.608270    28.884201
O       2.889690     4.982528     0.178061    28.880625
O       0.387430     1.551017     3.574019    28.890002
  
Same information as above printed with atom number.
   1 Li     4.197319     0.852413     2.238701     4.382901
   2 Li     1.695052     5.681202     1.513196     4.382871
   3 Li     0.807608     5.686398     5.943108     4.381169
   4 Li     3.310902     0.857589     6.668650     4.384092
   5 H      3.293190     2.004099     0.182409     3.580526
   6 H      0.789568     4.529347     3.569249     3.579991
   7 H      1.713249     4.534789     7.999294     3.582040
   8 H      4.215049     2.009418     4.612511     3.580898
   9 H      0.928872     2.962842     0.849073     4.490001
  10 H      3.431842     3.570477     2.903389     4.491744
  11 H      4.076271     3.575617     7.333499     4.489860
  12 H      1.573641     2.967969     5.279211     4.489714
  13 C      0.846291     1.602991     8.045607    22.540303
  14 C      3.349640     4.940547     4.565941    22.542803
  15 C      4.158781     4.935401     0.135882    22.545838
  16 C      1.656158     1.597702     3.615722    22.534620
  17 C      0.192970     2.648160     0.093494    27.642456
  18 C      2.695308     3.885170     3.658101    27.640433
  19 C      4.812689     3.890598     8.088117    27.644780
  20 C      2.309699     2.653640     4.523707    27.646830
  21 O      4.070431     2.155648     0.803684    28.588615
  22 O      1.567279     4.377352     2.948373    28.589045
  23 O      0.935438     4.382758     7.378379    28.587164
  24 O      3.437609     2.161008     5.233713    28.588502
  25 O      0.096272     0.842917     7.357488    30.222486
  26 O      2.598729     5.700012     5.253665    30.218036
  27 O      4.909351     5.694888     0.824062    30.222380
  28 O      2.406379     0.837923     2.927782    30.223548
  29 O      2.114937     1.556452     8.004173    28.886946
  30 O      4.618659     4.987951     4.608270    28.884201
  31 O      2.889690     4.982528     0.178061    28.880625
  32 O      0.387430     1.551017     3.574019    28.890002
