   32
jmolscript: load "" {1 1 1} spacegroup "x,y,z" unitcell [{      5.005236     0.000158     0.000004 }, {      0.000182     6.527885    -0.678076 }, {     -0.000020     0.010513     8.859978 }]
Li      4.197319     0.852413     2.238701     2.076685
Li      1.695052     5.681202     1.513196     2.076660
Li      0.807608     5.686398     5.943108     2.076111
Li      3.310902     0.857589     6.668650     2.077143
H       3.293190     2.004099     0.182409     1.458633
H       0.789568     4.529347     3.569249     1.458668
H       1.713249     4.534789     7.999294     1.459275
H       4.215049     2.009418     4.612511     1.458751
H       0.928872     2.962842     0.849073     1.922794
H       3.431842     3.570477     2.903389     1.923452
H       4.076271     3.575617     7.333499     1.922938
H       1.573641     2.967969     5.279211     1.922731
C       0.846291     1.602991     8.045607     9.759373
C       3.349640     4.940547     4.565941     9.759876
C       4.158781     4.935401     0.135882     9.761102
C       1.656158     1.597702     3.615722     9.757701
C       0.192970     2.648160     0.093494    11.862649
C       2.695308     3.885170     3.658101    11.861620
C       4.812689     3.890598     8.088117    11.863189
C       2.309699     2.653640     4.523707    11.864199
O       4.070431     2.155648     0.803684    13.528243
O       1.567279     4.377352     2.948373    13.527920
O       0.935438     4.382758     7.378379    13.527307
O       3.437609     2.161008     5.233713    13.528234
O       0.096272     0.842917     7.357488    14.202568
O       2.598729     5.700012     5.253665    14.201453
O       4.909351     5.694888     0.824062    14.202147
O       2.406379     0.837923     2.927782    14.202750
O       2.114937     1.556452     8.004173    13.778987
O       4.618659     4.987951     4.608270    13.778592
O       2.889690     4.982528     0.178061    13.777625
O       0.387430     1.551017     3.574019    13.779886
  
Same information as above printed with atom number.
   1 Li     4.197319     0.852413     2.238701     2.076685
   2 Li     1.695052     5.681202     1.513196     2.076660
   3 Li     0.807608     5.686398     5.943108     2.076111
   4 Li     3.310902     0.857589     6.668650     2.077143
   5 H      3.293190     2.004099     0.182409     1.458633
   6 H      0.789568     4.529347     3.569249     1.458668
   7 H      1.713249     4.534789     7.999294     1.459275
   8 H      4.215049     2.009418     4.612511     1.458751
   9 H      0.928872     2.962842     0.849073     1.922794
  10 H      3.431842     3.570477     2.903389     1.923452
  11 H      4.076271     3.575617     7.333499     1.922938
  12 H      1.573641     2.967969     5.279211     1.922731
  13 C      0.846291     1.602991     8.045607     9.759373
  14 C      3.349640     4.940547     4.565941     9.759876
  15 C      4.158781     4.935401     0.135882     9.761102
  16 C      1.656158     1.597702     3.615722     9.757701
  17 C      0.192970     2.648160     0.093494    11.862649
  18 C      2.695308     3.885170     3.658101    11.861620
  19 C      4.812689     3.890598     8.088117    11.863189
  20 C      2.309699     2.653640     4.523707    11.864199
  21 O      4.070431     2.155648     0.803684    13.528243
  22 O      1.567279     4.377352     2.948373    13.527920
  23 O      0.935438     4.382758     7.378379    13.527307
  24 O      3.437609     2.161008     5.233713    13.528234
  25 O      0.096272     0.842917     7.357488    14.202568
  26 O      2.598729     5.700012     5.253665    14.201453
  27 O      4.909351     5.694888     0.824062    14.202147
  28 O      2.406379     0.837923     2.927782    14.202750
  29 O      2.114937     1.556452     8.004173    13.778987
  30 O      4.618659     4.987951     4.608270    13.778592
  31 O      2.889690     4.982528     0.178061    13.777625
  32 O      0.387430     1.551017     3.574019    13.779886
